Version 4
SHEET 1 880 680
WIRE -144 -48 -320 -48
WIRE 464 -48 -144 -48
WIRE 464 -16 464 -48
WIRE 560 -16 464 -16
WIRE 560 16 560 -16
WIRE 112 80 16 80
WIRE 464 80 464 -16
WIRE 464 80 336 80
WIRE 112 144 64 144
WIRE 560 144 560 96
WIRE 560 144 336 144
WIRE -320 160 -320 -48
WIRE 560 176 560 144
WIRE 112 208 -32 208
WIRE 464 208 336 208
WIRE -144 272 -144 -48
WIRE 112 272 -144 272
WIRE 368 272 336 272
WIRE 64 336 64 144
WIRE 464 336 464 208
WIRE 464 336 64 336
WIRE 560 336 560 256
WIRE 560 336 464 336
WIRE 368 352 368 272
WIRE 560 352 560 336
WIRE -320 416 -320 240
WIRE -160 416 -320 416
WIRE 16 416 16 80
WIRE 16 416 -160 416
WIRE 16 432 16 416
WIRE 368 432 368 416
WIRE 368 432 16 432
WIRE 560 432 560 416
WIRE 560 432 368 432
WIRE -160 464 -160 416
FLAG -160 464 0
FLAG -32 208 out
IOPIN -32 208 Out
SYMBOL Misc\\NE555 224 176 R0
SYMATTR InstName U1
SYMBOL voltage -320 144 R0
WINDOW 123 0 0 Left 0
WINDOW 39 0 0 Left 0
SYMATTR InstName V1
SYMATTR Value 5
SYMBOL res 544 0 R0
SYMATTR InstName R1
SYMATTR Value 1000
SYMBOL res 544 160 R0
SYMATTR InstName R2
SYMATTR Value 50000
SYMBOL cap 544 352 R0
SYMATTR InstName C1
SYMATTR Value 0.00000001
SYMBOL cap 352 352 R0
SYMATTR InstName C2
SYMATTR Value 0.00000001
TEXT -354 488 Left 2 !.tran 0.005
