Version 4
SHEET 1 880 680
WIRE 320 -96 96 -96
WIRE 320 -64 320 -96
WIRE 96 96 96 -96
WIRE 176 96 96 96
WIRE 320 96 320 16
WIRE 320 96 288 96
WIRE 400 96 320 96
WIRE 96 144 96 96
WIRE 96 240 96 208
WIRE 400 240 96 240
WIRE 400 256 400 240
FLAG 400 256 0
FLAG 400 96 out
IOPIN 400 96 Out
SYMBOL CD4000\\CD40106B 224 48 R0
SYMATTR InstName U1
SYMBOL res 304 -80 R0
SYMATTR InstName R1
SYMATTR Value 2200
SYMBOL cap 80 144 R0
SYMATTR InstName C1
SYMATTR Value 0.00000001
TEXT 152 -176 Left 2 !.lib CD4000.lib
TEXT 78 280 Left 2 !.tran 0.0001
