Version 4
SHEET 1 880 680
WIRE 16 112 -16 112
WIRE 160 112 128 112
WIRE 304 112 272 112
WIRE 432 112 416 112
WIRE -16 224 -16 112
WIRE 432 224 432 112
WIRE 432 224 -16 224
SYMBOL CD4000\\CD4049B 352 48 R0
SYMATTR InstName U1
SYMBOL CD4000\\CD4049B 208 48 R0
SYMATTR InstName U2
SYMBOL CD4000\\CD4049B 64 48 R0
SYMATTR InstName U3
TEXT 128 40 Left 2 !.lib CD4000.lib
TEXT -18 230 Left 2 !.tran 0 0.00001 0 10
